C:\Users\HUGO>docker scout cves app2
    ! New version 1.0.9 available (installed version is 1.0.7) at https://github.com/docker/scout-cli
    v Image stored for indexing
    v Indexed 429 packages
    x Detected 9 vulnerable packages with a total of 13 vulnerabilities


## Overview

                    │           Analyzed Image
────────────────────┼─────────────────────────────────────
  Target            │  app2:latest
    digest          │  85f4675cb436
    platform        │ linux/amd64
    vulnerabilities │    1C     3H     9M     0L     1?
    size            │ 60 MB
    packages        │ 429


## Packages and Vulnerabilities

   1C     0H     0M     0L  execa 0.7.0
pkg:npm/execa@0.7.0

    x CRITICAL GMS-2020-2 [OWASP Top Ten 2017 Category A9 - Using Components with Known Vulnerabilities]
      https://scout.docker.com/v/GMS-2020-2
      Affected range : <2.0.0
      Fixed version  : 2.0.0
      CVSS Score     : 9.8
      CVSS Vector    : CVSS:3.0/AV:N/AC:L/PR:N/UI:N/S:U/C:H/I:H/A:H


   0C     1H     0M     0L  ansi-regex 4.1.0
pkg:npm/ansi-regex@4.1.0

    x HIGH CVE-2021-3807 [Inefficient Regular Expression Complexity]
      https://scout.docker.com/v/CVE-2021-3807
      Affected range : >=4.0.0
                     : <4.1.1
      Fixed version  : 4.1.1
      CVSS Score     : 7.5
      CVSS Vector    : CVSS:3.1/AV:N/AC:L/PR:N/UI:N/S:U/C:N/I:N/A:H


   0C     1H     0M     0L  ansi-regex 3.0.0
pkg:npm/ansi-regex@3.0.0

    x HIGH CVE-2021-3807 [Inefficient Regular Expression Complexity]
      https://scout.docker.com/v/CVE-2021-3807
      Affected range : >=3.0.0
                     : <3.0.1
      Fixed version  : 3.0.1
      CVSS Score     : 7.5
      CVSS Vector    : CVSS:3.1/AV:N/AC:L/PR:N/UI:N/S:U/C:N/I:N/A:H


   0C     1H     0M     0L  http-cache-semantics 3.8.1
pkg:npm/http-cache-semantics@3.8.1

    x HIGH CVE-2022-25881 [Inefficient Regular Expression Complexity]
      https://scout.docker.com/v/CVE-2022-25881
      Affected range : <4.1.1
      Fixed version  : 4.1.1
      CVSS Score     : 7.5
      CVSS Vector    : CVSS:3.1/AV:N/AC:L/PR:N/UI:N/S:U/C:N/I:N/A:H


   0C     0H     5M     0L     1?  openssl 3.0.8-r3
pkg:apk/alpine/openssl@3.0.8-r3?os_name=alpine&os_version=3.17

    x MEDIUM CVE-2023-2650
      https://scout.docker.com/v/CVE-2023-2650
      Affected range : <3.0.9-r0
      Fixed version  : 3.0.9-r0

    x MEDIUM CVE-2023-1255
      https://scout.docker.com/v/CVE-2023-1255
      Affected range : <3.0.8-r4
      Fixed version  : 3.0.8-r4

    x MEDIUM CVE-2023-3817
      https://scout.docker.com/v/CVE-2023-3817
      Affected range : <3.0.10-r0
      Fixed version  : 3.0.10-r0

    x MEDIUM CVE-2023-3446
      https://scout.docker.com/v/CVE-2023-3446
      Affected range : <3.0.9-r3
      Fixed version  : 3.0.9-r3

    x MEDIUM CVE-2023-2975
      https://scout.docker.com/v/CVE-2023-2975
      Affected range : <3.0.9-r2
      Fixed version  : 3.0.9-r2

    x UNSPECIFIED CVE-2023-5363
      https://scout.docker.com/v/CVE-2023-5363
      Affected range : <3.0.12-r0
      Fixed version  : 3.0.12-r0


   0C     0H     1M     0L  tough-cookie 2.5.0
pkg:npm/tough-cookie@2.5.0

    x MEDIUM CVE-2023-26136 [Improperly Controlled Modification of Object Prototype Attributes ('Prototype Pollution')]
      https://scout.docker.com/v/CVE-2023-26136
      Affected range : <4.1.3
      Fixed version  : 4.1.3
      CVSS Score     : 6.5
      CVSS Vector    : CVSS:3.1/AV:N/AC:L/PR:N/UI:N/S:U/C:L/I:L/A:N


   0C     0H     1M     0L  semver 5.7.1
pkg:npm/semver@5.7.1

    x MEDIUM CVE-2022-25883 [Inefficient Regular Expression Complexity]
      https://scout.docker.com/v/CVE-2022-25883
      Affected range : <5.7.2
      Fixed version  : 5.7.2
      CVSS Score     : 5.3
      CVSS Vector    : CVSS:3.1/AV:N/AC:L/PR:N/UI:N/S:U/C:N/I:N/A:L


   0C     0H     1M     0L  got 6.7.1
pkg:npm/got@6.7.1

    x MEDIUM CVE-2022-33987
      https://scout.docker.com/v/CVE-2022-33987
      Affected range : <11.8.5
      Fixed version  : 11.8.5
      CVSS Score     : 5.3
      CVSS Vector    : CVSS:3.1/AV:N/AC:L/PR:N/UI:N/S:U/C:N/I:L/A:N


   0C     0H     1M     0L  request 2.88.2
pkg:npm/request@2.88.2

    x MEDIUM CVE-2023-28155 [Server-Side Request Forgery (SSRF)]
      https://scout.docker.com/v/CVE-2023-28155
      Affected range : <=2.88.2
      Fixed version  : not fixed
      CVSS Score     : 6.1
      CVSS Vector    : CVSS:3.1/AV:N/AC:L/PR:N/UI:R/S:C/C:L/I:L/A:N



14 vulnerabilities found in 9 packages
  UNSPECIFIED  1
  LOW          0
  MEDIUM       9
  HIGH         3
  CRITICAL     1


What's Next?
  View base image update recommendations → docker scout recommendations app2:latest

